DONOR
  ATLAS   

  2  1  0  0  0  0  0  0  0  0  1 V2000
   14.3206   11.9996    3.2729 N   0  0  0  0  0  0  0  0  0  0  0  0
   14.0237   11.1737    2.7763 H   0  0  0  0  0  0  0  0  0  0  0  0
  1  2  1  0  0  0  0
M  END
> <CLUSTER_SIZE>
1275

> <HB_ENERGY>
-2.188983

$$$$
DONOR
  ATLAS   

  2  1  0  0  0  0  0  0  0  0  1 V2000
   12.0603   11.9207    2.2890 N   0  0  0  0  0  0  0  0  0  0  0  0
   12.3446   11.0228    1.9271 H   0  0  0  0  0  0  0  0  0  0  0  0
  1  2  1  0  0  0  0
M  END
> <CLUSTER_SIZE>
586

> <HB_ENERGY>
-1.350748

$$$$
DONOR
  ATLAS   

  2  1  0  0  0  0  0  0  0  0  1 V2000
    9.5401   14.6597    7.4668 N   0  0  0  0  0  0  0  0  0  0  0  0
    9.2829   15.6089    7.6931 H   0  0  0  0  0  0  0  0  0  0  0  0
  1  2  1  0  0  0  0
M  END
> <CLUSTER_SIZE>
529

> <HB_ENERGY>
-1.251197

$$$$
DONOR
  ATLAS   

  2  1  0  0  0  0  0  0  0  0  1 V2000
   10.9923   10.7591    1.6888 N   0  0  0  0  0  0  0  0  0  0  0  0
   10.3240   10.1159    1.2917 H   0  0  0  0  0  0  0  0  0  0  0  0
  1  2  1  0  0  0  0
M  END
> <CLUSTER_SIZE>
127

> <HB_ENERGY>
-1.100973

$$$$
DONOR
  ATLAS   

  2  1  0  0  0  0  0  0  0  0  1 V2000
    8.6396   12.6123    7.4509 N   0  0  0  0  0  0  0  0  0  0  0  0
    8.0669   12.3520    8.1981 H   0  0  0  0  0  0  0  0  0  0  0  0
  1  2  1  0  0  0  0
M  END
> <CLUSTER_SIZE>
1231

> <HB_ENERGY>
-0.998413

$$$$
DONOR
  ATLAS   

  2  1  0  0  0  0  0  0  0  0  1 V2000
    6.6157   11.2377    6.4382 N   0  0  0  0  0  0  0  0  0  0  0  0
    6.7725   11.5142    7.3984 H   0  0  0  0  0  0  0  0  0  0  0  0
  1  2  1  0  0  0  0
M  END
> <CLUSTER_SIZE>
69

> <HB_ENERGY>
-0.638808

$$$$
DONOR
  ATLAS   

  2  1  0  0  0  0  0  0  0  0  1 V2000
   11.2894   13.5672    6.7266 N   0  0  0  0  0  0  0  0  0  0  0  0
   11.9012   13.4205    7.5200 H   0  0  0  0  0  0  0  0  0  0  0  0
  1  2  1  0  0  0  0
M  END
> <CLUSTER_SIZE>
94

> <HB_ENERGY>
-0.142737

$$$$
