DONOR
  ATLAS   

  2  1  0  0  0  0  0  0  0  0  1 V2000
   -0.4456    5.6184    9.5100 N   0  0  0  0  0  0  0  0  0  0  0  0
   -1.3215    5.9253    9.9071 H   0  0  0  0  0  0  0  0  0  0  0  0
  1  2  1  0  0  0  0
M  END
> <CLUSTER_SIZE>
337

> <HB_ENERGY>
-2.253512

$$$$
DONOR
  ATLAS   

  2  1  0  0  0  0  0  0  0  0  1 V2000
    8.0849    7.5265    6.2338 N   0  0  0  0  0  0  0  0  0  0  0  0
    8.9750    7.1271    5.9789 H   0  0  0  0  0  0  0  0  0  0  0  0
  1  2  1  0  0  0  0
M  END
> <CLUSTER_SIZE>
987

> <HB_ENERGY>
-2.118730

$$$$
DONOR
  ATLAS   

  2  1  0  0  0  0  0  0  0  0  1 V2000
   -0.0741    7.1567    5.7520 N   0  0  0  0  0  0  0  0  0  0  0  0
   -0.7841    6.5270    6.0894 H   0  0  0  0  0  0  0  0  0  0  0  0
  1  2  1  0  0  0  0
M  END
> <CLUSTER_SIZE>
1016

> <HB_ENERGY>
-1.972336

$$$$
DONOR
  ATLAS   

  2  1  0  0  0  0  0  0  0  0  1 V2000
    6.7919    5.5083    8.0842 N   0  0  0  0  0  0  0  0  0  0  0  0
    7.3662    4.9000    8.6487 H   0  0  0  0  0  0  0  0  0  0  0  0
  1  2  1  0  0  0  0
M  END
> <CLUSTER_SIZE>
96

> <HB_ENERGY>
-1.571412

$$$$
DONOR
  ATLAS   

  2  1  0  0  0  0  0  0  0  0  1 V2000
   -0.2938    8.1269    2.8171 N   0  0  0  0  0  0  0  0  0  0  0  0
   -0.6181    7.4624    2.1789 H   0  0  0  0  0  0  0  0  0  0  0  0
  1  2  1  0  0  0  0
M  END
> <CLUSTER_SIZE>
608

> <HB_ENERGY>
-1.415552

$$$$
DONOR
  ATLAS   

  2  1  0  0  0  0  0  0  0  0  1 V2000
    1.6014    6.3434    2.7751 N   0  0  0  0  0  0  0  0  0  0  0  0
    1.2996    6.5585    1.8734 H   0  0  0  0  0  0  0  0  0  0  0  0
  1  2  1  0  0  0  0
M  END
> <CLUSTER_SIZE>
252

> <HB_ENERGY>
-1.036985

$$$$
DONOR
  ATLAS   

  2  1  0  0  0  0  0  0  0  0  1 V2000
    3.6763    7.0067   12.9355 N   0  0  0  0  0  0  0  0  0  0  0  0
    4.1275    7.6727   13.5429 H   0  0  0  0  0  0  0  0  0  0  0  0
  1  2  1  0  0  0  0
M  END
> <CLUSTER_SIZE>
863

> <HB_ENERGY>
-0.865186

$$$$
DONOR
  ATLAS   

  2  1  0  0  0  0  0  0  0  0  1 V2000
    0.5403    5.3933    7.5146 N   0  0  0  0  0  0  0  0  0  0  0  0
   -0.1254    5.6308    6.7945 H   0  0  0  0  0  0  0  0  0  0  0  0
  1  2  1  0  0  0  0
M  END
> <CLUSTER_SIZE>
426

> <HB_ENERGY>
-0.864914

$$$$
DONOR
  ATLAS   

  2  1  0  0  0  0  0  0  0  0  1 V2000
    2.2610    4.9960    9.3976 N   0  0  0  0  0  0  0  0  0  0  0  0
    2.9902    4.8133   10.0735 H   0  0  0  0  0  0  0  0  0  0  0  0
  1  2  1  0  0  0  0
M  END
> <CLUSTER_SIZE>
51

> <HB_ENERGY>
-0.701747

$$$$
DONOR
  ATLAS   

  2  1  0  0  0  0  0  0  0  0  1 V2000
    4.2003    6.2682    9.3973 N   0  0  0  0  0  0  0  0  0  0  0  0
    4.8545    5.5669    9.7097 H   0  0  0  0  0  0  0  0  0  0  0  0
  1  2  1  0  0  0  0
M  END
> <CLUSTER_SIZE>
89

> <HB_ENERGY>
-0.564222

$$$$
