DONOR
  ATLAS   

  2  1  0  0  0  0  0  0  0  0  1 V2000
   43.9770   15.3575    1.5009 N   0  0  0  0  0  0  0  0  0  0  0  0
   43.1465   15.2933    0.9324 H   0  0  0  0  0  0  0  0  0  0  0  0
  1  2  1  0  0  0  0
M  END
> <CLUSTER_SIZE>
55

> <HB_ENERGY>
-1.375972

$$$$
DONOR
  ATLAS   

  2  1  0  0  0  0  0  0  0  0  1 V2000
   47.1959   13.0301    2.7689 N   0  0  0  0  0  0  0  0  0  0  0  0
   48.0510   12.5899    2.9058 H   0  0  0  0  0  0  0  0  0  0  0  0
  1  2  1  0  0  0  0
M  END
> <CLUSTER_SIZE>
1865

> <HB_ENERGY>
-1.304630

$$$$
DONOR
  ATLAS   

  2  1  0  0  0  0  0  0  0  0  1 V2000
   47.1313   10.9785    1.4921 N   0  0  0  0  0  0  0  0  0  0  0  0
   48.1090   11.0905    1.7136 H   0  0  0  0  0  0  0  0  0  0  0  0
  1  2  1  0  0  0  0
M  END
> <CLUSTER_SIZE>
1360

> <HB_ENERGY>
-1.157498

$$$$
